<routes>
    <!-- Bicycle Vehicle Type -->
    <vType id="bike" vClass="bicycle" jmIgnoreJunctionFoeProb="1" jmIgnoreFoeProb="1"/>
    <!-- Routes -->
    <route id="r0" edges="-E31 -E29" />
    <route id="r1" edges="E29 E30" />
    <route id="r2" edges="-E31 E30" />
    <route id="r3" edges="-E30 -E29" />
    <route id="r4" edges="-E30 E31" />
    <route id="r5" edges="E29 E31" />
    <!-- Bikes -->
    <vehicle id="b0" type="bike" route="r0" depart="0" />
    <vehicle id="b2" type="bike" route="r2" depart="0" />
    <vehicle id="b4" type="bike" route="r4" depart="0" />
    <vehicle id="b5" type="bike" route="r5" depart="0" />
    <vehicle id="b9" type="bike" route="r3" depart="1" />
    <vehicle id="b10" type="bike" route="r4" depart="1" />
    <vehicle id="b11" type="bike" route="r5" depart="1" />
    <vehicle id="b12" type="bike" route="r0" depart="2" />
    <vehicle id="b15" type="bike" route="r3" depart="2" />
    <vehicle id="b17" type="bike" route="r5" depart="2" />
    <vehicle id="b19" type="bike" route="r1" depart="3" />
    <vehicle id="b20" type="bike" route="r2" depart="3" />
    <vehicle id="b21" type="bike" route="r3" depart="3" />
    <vehicle id="b23" type="bike" route="r5" depart="3" />
    <vehicle id="b28" type="bike" route="r4" depart="4" />
    <vehicle id="b29" type="bike" route="r5" depart="4" />
    <vehicle id="b32" type="bike" route="r2" depart="5" />
    <vehicle id="b35" type="bike" route="r5" depart="5" />
    <vehicle id="b36" type="bike" route="r0" depart="6" />
    <vehicle id="b38" type="bike" route="r2" depart="6" />
    <vehicle id="b39" type="bike" route="r3" depart="6" />
    <vehicle id="b42" type="bike" route="r0" depart="7" />
    <vehicle id="b43" type="bike" route="r1" depart="7" />
    <vehicle id="b45" type="bike" route="r3" depart="7" />
    <vehicle id="b46" type="bike" route="r4" depart="7" />
    <vehicle id="b47" type="bike" route="r5" depart="7" />
    <vehicle id="b48" type="bike" route="r0" depart="8" />
    <vehicle id="b51" type="bike" route="r3" depart="8" />
    <vehicle id="b52" type="bike" route="r4" depart="8" />
    <vehicle id="b53" type="bike" route="r5" depart="8" />
    <vehicle id="b56" type="bike" route="r2" depart="9" />
    <vehicle id="b58" type="bike" route="r4" depart="9" />
    <vehicle id="b62" type="bike" route="r2" depart="10" />
    <vehicle id="b63" type="bike" route="r3" depart="10" />
    <vehicle id="b66" type="bike" route="r0" depart="11" />
    <vehicle id="b68" type="bike" route="r2" depart="11" />
    <vehicle id="b72" type="bike" route="r0" depart="12" />
    <vehicle id="b75" type="bike" route="r3" depart="12" />
    <vehicle id="b76" type="bike" route="r4" depart="12" />
    <vehicle id="b77" type="bike" route="r5" depart="12" />
    <vehicle id="b78" type="bike" route="r0" depart="13" />
    <vehicle id="b79" type="bike" route="r1" depart="13" />
    <vehicle id="b83" type="bike" route="r5" depart="13" />
    <vehicle id="b84" type="bike" route="r0" depart="14" />
    <vehicle id="b85" type="bike" route="r1" depart="14" />
    <vehicle id="b88" type="bike" route="r4" depart="14" />
    <vehicle id="b89" type="bike" route="r5" depart="14" />
    <vehicle id="b90" type="bike" route="r0" depart="15" />
    <vehicle id="b93" type="bike" route="r3" depart="15" />
    <vehicle id="b96" type="bike" route="r0" depart="16" />
    <vehicle id="b100" type="bike" route="r4" depart="16" />
    <vehicle id="b102" type="bike" route="r0" depart="17" />
    <vehicle id="b105" type="bike" route="r3" depart="17" />
    <vehicle id="b106" type="bike" route="r4" depart="17" />
    <vehicle id="b108" type="bike" route="r0" depart="18" />
    <vehicle id="b115" type="bike" route="r1" depart="19" />
    <vehicle id="b116" type="bike" route="r2" depart="19" />
    <vehicle id="b118" type="bike" route="r4" depart="19" />
    <vehicle id="b119" type="bike" route="r5" depart="19" />
    <vehicle id="b124" type="bike" route="r4" depart="20" />
    <vehicle id="b125" type="bike" route="r5" depart="20" />
    <vehicle id="b126" type="bike" route="r0" depart="21" />
    <vehicle id="b127" type="bike" route="r1" depart="21" />
    <vehicle id="b131" type="bike" route="r5" depart="21" />
    <vehicle id="b132" type="bike" route="r0" depart="22" />
    <vehicle id="b133" type="bike" route="r1" depart="22" />
    <vehicle id="b134" type="bike" route="r2" depart="22" />
    <vehicle id="b136" type="bike" route="r4" depart="22" />
    <vehicle id="b138" type="bike" route="r0" depart="23" />
    <vehicle id="b140" type="bike" route="r2" depart="23" />
    <vehicle id="b142" type="bike" route="r4" depart="23" />
    <vehicle id="b145" type="bike" route="r1" depart="24" />
    <vehicle id="b146" type="bike" route="r2" depart="24" />
    <vehicle id="b147" type="bike" route="r3" depart="24" />
    <vehicle id="b149" type="bike" route="r5" depart="24" />
    <vehicle id="b151" type="bike" route="r1" depart="25" />
    <vehicle id="b152" type="bike" route="r2" depart="25" />
    <vehicle id="b156" type="bike" route="r0" depart="26" />
    <vehicle id="b157" type="bike" route="r1" depart="26" />
    <vehicle id="b158" type="bike" route="r2" depart="26" />
    <vehicle id="b159" type="bike" route="r3" depart="26" />
    <vehicle id="b163" type="bike" route="r1" depart="27" />
    <vehicle id="b164" type="bike" route="r2" depart="27" />
    <vehicle id="b166" type="bike" route="r4" depart="27" />
    <vehicle id="b169" type="bike" route="r1" depart="28" />
    <vehicle id="b174" type="bike" route="r0" depart="29" />
    <vehicle id="b175" type="bike" route="r1" depart="29" />
    <vehicle id="b176" type="bike" route="r2" depart="29" />
    <vehicle id="b177" type="bike" route="r3" depart="29" />
    <vehicle id="b179" type="bike" route="r5" depart="29" />
    <vehicle id="b181" type="bike" route="r1" depart="30" />
    <vehicle id="b182" type="bike" route="r2" depart="30" />
    <vehicle id="b184" type="bike" route="r4" depart="30" />
    <vehicle id="b185" type="bike" route="r5" depart="30" />
    <vehicle id="b186" type="bike" route="r0" depart="31" />
    <vehicle id="b187" type="bike" route="r1" depart="31" />
    <vehicle id="b188" type="bike" route="r2" depart="31" />
    <vehicle id="b189" type="bike" route="r3" depart="31" />
    <vehicle id="b190" type="bike" route="r4" depart="31" />
    <vehicle id="b193" type="bike" route="r1" depart="32" />
    <vehicle id="b195" type="bike" route="r3" depart="32" />
    <vehicle id="b196" type="bike" route="r4" depart="32" />
    <vehicle id="b197" type="bike" route="r5" depart="32" />
    <vehicle id="b199" type="bike" route="r1" depart="33" />
    <vehicle id="b200" type="bike" route="r2" depart="33" />
    <vehicle id="b201" type="bike" route="r3" depart="33" />
    <vehicle id="b203" type="bike" route="r5" depart="33" />
    <vehicle id="b209" type="bike" route="r5" depart="34" />
    <vehicle id="b210" type="bike" route="r0" depart="35" />
    <vehicle id="b211" type="bike" route="r1" depart="35" />
    <vehicle id="b213" type="bike" route="r3" depart="35" />
    <vehicle id="b215" type="bike" route="r5" depart="35" />
    <vehicle id="b216" type="bike" route="r0" depart="36" />
    <vehicle id="b217" type="bike" route="r1" depart="36" />
    <vehicle id="b218" type="bike" route="r2" depart="36" />
    <vehicle id="b222" type="bike" route="r0" depart="37" />
    <vehicle id="b223" type="bike" route="r1" depart="37" />
    <vehicle id="b224" type="bike" route="r2" depart="37" />
    <vehicle id="b229" type="bike" route="r1" depart="38" />
    <vehicle id="b231" type="bike" route="r3" depart="38" />
    <vehicle id="b232" type="bike" route="r4" depart="38" />
    <vehicle id="b233" type="bike" route="r5" depart="38" />
    <vehicle id="b235" type="bike" route="r1" depart="39" />
    <vehicle id="b236" type="bike" route="r2" depart="39" />
    <vehicle id="b238" type="bike" route="r4" depart="39" />
    <vehicle id="b239" type="bike" route="r5" depart="39" />
    <vehicle id="b241" type="bike" route="r1" depart="40" />
    <vehicle id="b242" type="bike" route="r2" depart="40" />
    <vehicle id="b243" type="bike" route="r3" depart="40" />
    <vehicle id="b245" type="bike" route="r5" depart="40" />
    <vehicle id="b247" type="bike" route="r1" depart="41" />
    <vehicle id="b248" type="bike" route="r2" depart="41" />
    <vehicle id="b249" type="bike" route="r3" depart="41" />
    <vehicle id="b250" type="bike" route="r4" depart="41" />
    <vehicle id="b252" type="bike" route="r0" depart="42" />
    <vehicle id="b253" type="bike" route="r1" depart="42" />
    <vehicle id="b254" type="bike" route="r2" depart="42" />
    <vehicle id="b256" type="bike" route="r4" depart="42" />
    <vehicle id="b262" type="bike" route="r4" depart="43" />
    <vehicle id="b263" type="bike" route="r5" depart="43" />
    <vehicle id="b265" type="bike" route="r1" depart="44" />
    <vehicle id="b269" type="bike" route="r5" depart="44" />
    <vehicle id="b272" type="bike" route="r2" depart="45" />
    <vehicle id="b273" type="bike" route="r3" depart="45" />
    <vehicle id="b275" type="bike" route="r5" depart="45" />
    <vehicle id="b276" type="bike" route="r0" depart="46" />
    <vehicle id="b277" type="bike" route="r1" depart="46" />
    <vehicle id="b278" type="bike" route="r2" depart="46" />
    <vehicle id="b282" type="bike" route="r0" depart="47" />
    <vehicle id="b283" type="bike" route="r1" depart="47" />
    <vehicle id="b285" type="bike" route="r3" depart="47" />
    <vehicle id="b287" type="bike" route="r5" depart="47" />
    <vehicle id="b288" type="bike" route="r0" depart="48" />
    <vehicle id="b292" type="bike" route="r4" depart="48" />
    <vehicle id="b293" type="bike" route="r5" depart="48" />
    <vehicle id="b294" type="bike" route="r0" depart="49" />
    <vehicle id="b295" type="bike" route="r1" depart="49" />
    <vehicle id="b296" type="bike" route="r2" depart="49" />
    <vehicle id="b297" type="bike" route="r3" depart="49" />
    <vehicle id="b299" type="bike" route="r5" depart="49" />
    <vehicle id="b300" type="bike" route="r0" depart="50" />
    <vehicle id="b301" type="bike" route="r1" depart="50" />
    <vehicle id="b302" type="bike" route="r2" depart="50" />
    <vehicle id="b305" type="bike" route="r5" depart="50" />
    <vehicle id="b308" type="bike" route="r2" depart="51" />
    <vehicle id="b309" type="bike" route="r3" depart="51" />
    <vehicle id="b311" type="bike" route="r5" depart="51" />
    <vehicle id="b314" type="bike" route="r2" depart="52" />
    <vehicle id="b318" type="bike" route="r0" depart="53" />
    <vehicle id="b321" type="bike" route="r3" depart="53" />
    <vehicle id="b327" type="bike" route="r3" depart="54" />
    <vehicle id="b328" type="bike" route="r4" depart="54" />
    <vehicle id="b329" type="bike" route="r5" depart="54" />
    <vehicle id="b331" type="bike" route="r1" depart="55" />
    <vehicle id="b332" type="bike" route="r2" depart="55" />
    <vehicle id="b335" type="bike" route="r5" depart="55" />
    <vehicle id="b337" type="bike" route="r1" depart="56" />
    <vehicle id="b339" type="bike" route="r3" depart="56" />
    <vehicle id="b340" type="bike" route="r4" depart="56" />
    <vehicle id="b341" type="bike" route="r5" depart="56" />
    <vehicle id="b343" type="bike" route="r1" depart="57" />
    <vehicle id="b344" type="bike" route="r2" depart="57" />
    <vehicle id="b345" type="bike" route="r3" depart="57" />
    <vehicle id="b346" type="bike" route="r4" depart="57" />
    <vehicle id="b347" type="bike" route="r5" depart="57" />
    <vehicle id="b349" type="bike" route="r1" depart="58" />
    <vehicle id="b350" type="bike" route="r2" depart="58" />
    <vehicle id="b351" type="bike" route="r3" depart="58" />
    <vehicle id="b357" type="bike" route="r3" depart="59" />
    <vehicle id="b358" type="bike" route="r4" depart="59" />
</routes>
